Version 4.1
SHEET 1 880 680
WIRE 592 -128 368 -128
WIRE 256 -96 368 -128
WIRE 464 -96 368 -128
WIRE 256 48 256 -16
WIRE 320 48 256 48
WIRE 464 48 464 -16
WIRE 464 48 400 48
WIRE 256 112 256 48
WIRE 464 112 464 48
WIRE 368 224 256 192
WIRE 368 224 464 192
WIRE 592 224 368 224
SYMBOL strain-gauge 240 -112 R0
SYMATTR SpiceLine R=320 L=0.32 k=1.76 n=1
SYMATTR Value strain=32
SYMATTR InstName R1
SYMBOL res 240 96 R0
SYMATTR InstName R3
SYMATTR Value 320
SYMBOL res 448 -112 R0
WINDOW 3 35 80 Left 2
SYMATTR InstName R2
SYMATTR Value 320
SYMBOL res 448 96 R0
SYMATTR InstName R4
SYMATTR Value 320
SYMBOL voltage 416 48 R90
WINDOW 0 -32 56 VBottom 2
WINDOW 3 32 56 VTop 2
WINDOW 123 0 0 Left 0
WINDOW 39 0 0 Left 0
SYMATTR InstName V
SYMATTR Value 5
TEXT 224 288 Left 2 !.lib strain-gauge.LIB
