Version 4
SHEET 1 1144 920
WIRE 912 416 576 416
WIRE 912 432 912 416
WIRE 448 448 240 448
WIRE 80 464 -96 464
WIRE -96 480 -96 464
WIRE 128 480 240 448
WIRE 336 480 240 448
WIRE 80 496 80 464
WIRE 576 496 576 416
WIRE 448 512 448 448
WIRE 496 512 448 512
WIRE 912 544 912 512
WIRE -96 576 -96 560
WIRE -32 576 -96 576
WIRE 80 576 80 544
WIRE 80 576 -32 576
WIRE 496 576 400 576
WIRE -32 624 -32 576
WIRE 80 624 -32 624
WIRE 128 624 128 560
WIRE 128 624 80 624
WIRE 192 624 128 624
WIRE 336 624 336 560
WIRE 336 624 272 624
WIRE 816 624 736 624
WIRE 80 656 80 624
WIRE 912 656 912 624
WIRE 400 672 400 656
WIRE 496 672 400 672
WIRE 128 688 128 624
WIRE 336 688 336 624
WIRE 496 736 448 736
WIRE 656 736 656 688
WIRE 912 768 912 736
WIRE 240 800 128 768
WIRE 240 800 336 768
WIRE 448 800 448 736
WIRE 448 800 240 800
WIRE 576 832 576 752
WIRE 656 832 656 816
WIRE 656 832 576 832
WIRE 816 832 656 832
WIRE 656 848 656 832
WIRE 912 864 912 848
FLAG 656 848 0
FLAG 80 656 0
FLAG 912 864 0
SYMBOL strain-gauge 112 464 R0
SYMATTR SpiceLine R=320 L=0.32 k=1.76 n=1
SYMATTR InstName R1
SYMBOL res 112 672 R0
SYMATTR InstName R3
SYMATTR Value 320
SYMBOL res 320 464 R0
WINDOW 3 35 80 Left 2
SYMATTR Value 320
SYMATTR InstName R2
SYMBOL res 320 672 R0
SYMATTR InstName R4
SYMATTR Value 320
SYMBOL voltage 288 624 R90
WINDOW 0 -32 56 VBottom 2
WINDOW 3 32 56 VTop 2
WINDOW 123 0 0 Left 0
WINDOW 39 0 0 Left 0
SYMATTR InstName Vref
SYMATTR Value 5
SYMBOL voltage -96 464 R0
WINDOW 3 93 89 Center 2
SYMATTR Value SINE(0 1u 5)
SYMATTR InstName V
SYMBOL INA122 480 576 R0
SYMATTR InstName U1
SYMBOL Voltage 656 720 R0
SYMATTR InstName Vref2
SYMATTR Value 2.5
SYMBOL Res 384 560 R0
SYMATTR InstName RG
SYMATTR Value 26.68
SYMBOL Voltage 912 752 R0
SYMATTR InstName V+
SYMATTR Value 5
SYMBOL Voltage 912 640 R0
SYMATTR InstName V1
SYMATTR Value SINE(0 200m 50)
SYMBOL Voltage 912 528 R0
SYMATTR InstName V2
SYMATTR Value SINE(0 200m 100)
SYMBOL Voltage 912 416 R0
SYMATTR InstName V3
SYMATTR Value SINE(0 1000m 1K)
TEXT 96 840 Left 2 !.lib strain-gauge.LIB
TEXT 96 904 Left 2 !.tran 0 1 0 10u
TEXT 96 872 Left 2 !.lib INA122.LIB
